Memristor with threshold
*.OPTIONS	POST=1	LIST ingold=2 runlvl=0
.param stime=0.5
*.param uni=unif(0.5,0.5)

* send parameters to the .control section

.csparam stime={stime}


**************MOSFET**********************************************************************
.model n12 nmos level=49 version=3.3.0 L=1.000E-05 W=1.000E-05
.model p12 pmos level=49 version=3.3.0 L=1.000E-05 W=1.000E-05

*.model n1 nmos level=49 version=3.3.0
*.model p1 pmos level=49 version=3.3.0

*.MODEL n1 NMOS level=49 version=3.3.0 W=3u L=0.35u pd=9u ad=9p ps=9u as=9p
*.MODEL p1 PMOS level=49 version=3.3.0 W=7.5u L=0.35u pd=13.5u ad=22.5p ps=13.5u as=22.5p

*.model n1 nmos level=8 version=3.2.2
*.model p1 pmos level=8 version=3.2.2

.MODEL n12 NMOS L=1.000E-05 W=1.000E-05
.MODEL p21 PMOS L=1.000E-05 W=1.000E-05

.MODEL n1 NMOS (LEVEL=49
+VERSION=3.3 CAPMOD=2 MOBMOD=1
+TOX=1E-7 NCH=1.45E17 NSUB=5.33E16 XT=8.66E-8
+VTH0=0.3 U0= 600 WINT=2.0E-7 LINT=1E-7
+NGATE=5E20 RSH=1082 JS=3.23E-8 JSW=3.23E-8 CJ=6.8E-4 MJ=0.5 PB=0.95
+CJSW=1.26E-10 MJSW=0.5 PBSW=0.95 PCLM=5
+CGSO=3.4E-10 CGDO=3.4E-10 CGBO=5.75E-10)

.MODEL p1 PMOS (LEVEL=49
+VERSION=3.3 CAPMOD=2 MOBMOD=1
+TOX=1E-7 NCH=7.12E16 NSUB=3.16E16 XT=8.66E-8
+VTH0=-0.3 U0= 376.72 WINT=2.0E-7 LINT=2.26E-7
+NGATE=5E20 RSH=1347 JS=3.51E-8 JSW=3.51E-8 CJ=5.28E-4 MJ=0.5 PB=0.94
+CJSW=1.19E-10 MJSW=0.5 PBSW=0.94
+CGSO=4.5E-10 CGDO=4.5E-10 CGBO=5.75E-10)

***************************memristor**************************************************************************************
.subckt memristor plus minus params: Ron=100 Roff=10k xini='ra' uv='1e-14/stime' p=1,

.param D=10n k={uv*Ron/pow(D,2)} a={(xini-Ron)/(Roff-xini)}

*model of memristive port
Roff plus aux {Roff}

Eres aux minus value={(Ron-Roff)/(1+a*exp(-4*k*V(q)))*I(Eres)}

*Rmem plus minus R='Roff+(Ron-Roff)/(1+a*exp(-4*k*V(q)))'
*end of the model of memristive port

*integrator model

Gx 0 Q value={i(Eres)}

Cint Q 0 1

Raux Q 0 100meg

*end of integrator model

*alternative integrator model; SDT function for PSPICE can be replaced by IDT for LTspice

*Eq Q 0 value={SDT(I(Eres))}

.ends memristor




**************reservior units-4类*********************************
***************unitrc1*********************************
.subckt unitrc1 in out params: ra=0.14 tb=0.03
xmen 2 121 memristor xini='ra'
vtemp2 121 1 dc 0
Mp1 2 cpminus in in p1
Mn1 1 cppulse out out n1
Mn2 2 cpminus out out n1
Mp2 1 cppulse in in p1
vcp41 cppulse 0 DC 0 PULSE(0 5 0 0 0 'tb*stime' 'tb*2*stime')
vcp42 cpminus 0 DC 0 PULSE(5 0 0 0 0 'tb*stime' 'tb*2*stime')
*vtemp1 out1 out dc 0
*xs1 out2 0 out myswitch
.ends


***************unitrc3（大阻值相当于断路）*********************************
.subckt unitrc2 in out
R1 in out 1e+12
.ends

***********input voltage*****************
*vcp 100 0 sin(2.5 2.5 '10/stime' 0 0 0)
*vcp 100 0 sin(4.5 4.5 '20/stime' '0.5*stime' 0 0)
.subckt filesource1 1 2
a1 %vd([1 2]) filesrc1
.model filesrc1 filesource (file="signal1.m" amploffset=[0] amplscale=[1]
+ timeoffset=0 timescale=1
+ timerelative=false amplstep=false)
.ends

.subckt filesource2 1 2
a1 %vd([1 2]) filesrc2
.model filesrc2 filesource (file="signal2.m" amploffset=[0] amplscale=[1]
+ timeoffset=0 timescale=1
+ timerelative=false amplstep=false)
.ends

.subckt filesource3 1 2
a1 %vd([1 2]) filesrc3
.model filesrc3 filesource (file="signal3.m" amploffset=[0] amplscale=[1]
+ timeoffset=0 timescale=1
+ timerelative=false amplstep=false)
.ends

.subckt filesource4 1 2
a1 %vd([1 2]) filesrc4
.model filesrc4 filesource (file="signal1.m" amploffset=[0] amplscale=[1]
+ timeoffset=0 timescale=1
+ timerelative=false amplstep=false)
.ends

.subckt filesource5 1 2
a1 %vd([1 2]) filesrc5
.model filesrc5 filesource (file="signal2.m" amploffset=[0] amplscale=[1]
+ timeoffset=0 timescale=1
+ timerelative=false amplstep=false)
.ends

.subckt filesource6 1 2
a1 %vd([1 2]) filesrc6
.model filesrc6 filesource (file="signal3.m" amploffset=[0] amplscale=[1]
+ timeoffset=0 timescale=1
+ timerelative=false amplstep=false)
.ends

.subckt filesource7 1 2
a1 %vd([1 2]) filesrc7
.model filesrc7 filesource (file="signal1.m" amploffset=[0] amplscale=[1]
+ timeoffset=0 timescale=1
+ timerelative=false amplstep=false)
.ends

.subckt filesource8 1 2
a1 %vd([1 2]) filesrc8
.model filesrc8 filesource (file="signal2.m" amploffset=[0] amplscale=[1]
+ timeoffset=0 timescale=1
+ timerelative=false amplstep=false)
.ends

.subckt filesource9 1 2
a1 %vd([1 2]) filesrc9
.model filesrc9 filesource (file="signal3.m" amploffset=[0] amplscale=[1]
+ timeoffset=0 timescale=1
+ timerelative=false amplstep=false)
.ends

X1 100 0 filesource1
X2 101 0 filesource2
X3 102 0 filesource3
X4 103 0 filesource4
X5 104 0 filesource5
X6 105 0 filesource6
X7 106 0 filesource7
X8 107 0 filesource8
X9 108 0 filesource9
***********target voltage*****************
*vtarget1 vt1 0 DC 0 PULSE(0 0.001 0 0 0 'stime/20' 'stime/10')
*vtarget2 vt2 0 DC 0 PULSE(0 0.001 0  'stime/20' 0 'stime/999' 'stime/10')
*vtarget3 vt3 0 DC 0 sin(0.0005 0.0005 '20/stime' 0 0 0)

.subckt filesource10 1 2
a1 %vd([1 2]) filesrc10
.model filesrc10 filesource (file="output.m" amploffset=[0] amplscale=[1]
+ timeoffset=0 timescale=1
+ timerelative=false amplstep=false)
.ends

xtarget1 vt1 0 filesource10
**************input layer***********
*xunitin1 1 2 unitin ta=0.199
*xopein 2 5 ope
*Rin1 1 5 1k
***********reservior input voltage (演化下面out_gain这个参数-1到1之间)*****************
*vp1 112 0 DC 0 PULSE(1 0 0 0 0 'stime' 'stime')
*a2 [5 112] 113 sigmulta2
*.model sigmulta2 mult(in_offset=[0 0]
*+ in_gain=[1.0 1.0] out_gain=1 out_offset=0)

************待生成reservior*(必须包含节点113)(6-26)*********************************
*************随机选择reservior中的一个节点接输入和地***********


vtemprc1 100 21 dc 0
vtemprc2 101 13 dc 0
vtemprc3 102 1 dc 0
vtemprc4 103 48 dc 0
vtemprc5 104 4 dc 0
vtemprc6 105 8 dc 0
vtemprc7 106 28 dc 0
vtemprc8 107 11 dc 0
vtemprc9 108 23 dc 0
vtemprc10  39 0 dc 0
xunit1-1  1  1  unitrc1  ra=6383.76  tb=0.26
xunit1-2  1  2  unitrc1  ra=6325.17  tb=0.41
xunit1-4  1  4  unitrc1  ra=7986.39  tb=0.19
xunit1-6  1  6  unitrc1  ra=2058.48  tb=0.35
xunit1-8  1  8  unitrc1  ra=2173.10  tb=0.05
xunit1-9  1  9  unitrc1  ra=3663.51  tb=0.21
xunit1-10  1  10  unitrc1  ra=6279.56  tb=0.15
xunit1-14  1  14  unitrc1  ra=1853.74  tb=0.39
xunit1-15  1  15  unitrc1  ra=9982.65  tb=0.23
xunit1-16  1  16  unitrc1  ra=3317.93  tb=0.13
xunit1-17  1  17  unitrc1  ra=8276.86  tb=0.30
xunit1-18  1  18  unitrc1  ra=8330.58  tb=0.22
xunit1-21  1  21  unitrc1  ra=7548.66  tb=0.40
xunit1-22  1  22  unitrc1  ra=6905.26  tb=0.17
xunit1-23  1  23  unitrc1  ra=4931.23  tb=0.22
xunit1-24  1  24  unitrc1  ra=1694.38  tb=0.41
xunit1-25  1  25  unitrc1  ra=8294.53  tb=0.25
xunit1-26  1  26  unitrc1  ra=8747.66  tb=0.49
xunit1-27  1  27  unitrc1  ra=1500.27  tb=0.08
xunit1-29  1  29  unitrc1  ra=2043.43  tb=0.45
xunit1-32  1  32  unitrc1  ra=4698.16  tb=0.03
xunit1-34  1  34  unitrc1  ra=2525.33  tb=0.35
xunit1-35  1  35  unitrc1  ra=305.57  tb=0.07
xunit1-42  1  42  unitrc1  ra=4061.78  tb=0.19
xunit1-45  1  45  unitrc1  ra=4519.64  tb=0.24
xunit1-46  1  46  unitrc1  ra=2179.21  tb=0.04

xunit2-1  2  1  unitrc1  ra=8454.72  tb=0.09
xunit2-3  2  3  unitrc1  ra=3248.39  tb=0.20
xunit2-8  2  8  unitrc1  ra=2297.76  tb=0.50
xunit2-12  2  12  unitrc1  ra=2005.72  tb=0.18
xunit2-13  2  13  unitrc1  ra=316.63  tb=0.12
xunit2-14  2  14  unitrc1  ra=5377.89  tb=0.10
xunit2-15  2  15  unitrc1  ra=9613.83  tb=0.15
xunit2-16  2  16  unitrc1  ra=6959.19  tb=0.18
xunit2-17  2  17  unitrc1  ra=8410.07  tb=0.50
xunit2-18  2  18  unitrc1  ra=9120.85  tb=0.37
xunit2-19  2  19  unitrc1  ra=7786.26  tb=0.30
xunit2-20  2  20  unitrc1  ra=3738.96  tb=0.34
xunit2-22  2  22  unitrc1  ra=6208.83  tb=0.35
xunit2-23  2  23  unitrc1  ra=4445.05  tb=0.28
xunit2-24  2  24  unitrc1  ra=1637.95  tb=0.29
xunit2-27  2  27  unitrc1  ra=3320.00  tb=0.48
xunit2-32  2  32  unitrc1  ra=3856.00  tb=0.00
xunit2-36  2  36  unitrc1  ra=4990.51  tb=0.24
xunit2-39  2  39  unitrc1  ra=9943.29  tb=0.38
xunit2-40  2  40  unitrc1  ra=2598.66  tb=0.32
xunit2-41  2  41  unitrc1  ra=4358.08  tb=0.43
xunit2-43  2  43  unitrc1  ra=6600.96  tb=0.01
xunit2-44  2  44  unitrc1  ra=7904.19  tb=0.13
xunit2-45  2  45  unitrc1  ra=6317.24  tb=0.36
xunit2-46  2  46  unitrc1  ra=4116.29  tb=0.41
xunit2-47  2  47  unitrc1  ra=6210.64  tb=0.18
xunit2-48  2  48  unitrc1  ra=673.18  tb=0.10

xunit3-2  3  2  unitrc1  ra=5770.45  tb=0.37
xunit3-3  3  3  unitrc1  ra=7072.86  tb=0.37
xunit3-4  3  4  unitrc1  ra=2679.23  tb=0.00
xunit3-6  3  6  unitrc1  ra=3590.44  tb=0.32
xunit3-7  3  7  unitrc1  ra=9412.52  tb=0.08
xunit3-8  3  8  unitrc1  ra=5378.42  tb=0.23
xunit3-11  3  11  unitrc1  ra=832.19  tb=0.15
xunit3-12  3  12  unitrc1  ra=4333.41  tb=0.49
xunit3-15  3  15  unitrc1  ra=410.54  tb=0.39
xunit3-16  3  16  unitrc1  ra=3456.86  tb=0.18
xunit3-18  3  18  unitrc1  ra=3836.13  tb=0.22
xunit3-20  3  20  unitrc1  ra=6699.62  tb=0.31
xunit3-22  3  22  unitrc1  ra=1733.38  tb=0.32
xunit3-23  3  23  unitrc1  ra=5680.87  tb=0.22
xunit3-25  3  25  unitrc1  ra=8207.55  tb=0.33
xunit3-26  3  26  unitrc1  ra=5074.03  tb=0.49
xunit3-27  3  27  unitrc1  ra=9584.14  tb=0.14
xunit3-32  3  32  unitrc1  ra=5276.00  tb=0.40
xunit3-36  3  36  unitrc1  ra=3858.92  tb=0.14
xunit3-37  3  37  unitrc1  ra=5892.31  tb=0.47
xunit3-39  3  39  unitrc1  ra=7981.20  tb=0.06
xunit3-43  3  43  unitrc1  ra=5673.27  tb=0.29
xunit3-45  3  45  unitrc1  ra=1864.28  tb=0.44
xunit3-48  3  48  unitrc1  ra=3953.70  tb=0.13
xunit3-49  3  49  unitrc1  ra=5085.58  tb=0.24
xunit3-50  3  50  unitrc1  ra=782.84  tb=0.06

xunit4-1  4  1  unitrc1  ra=2020.83  tb=0.27
xunit4-3  4  3  unitrc1  ra=1976.48  tb=0.01
xunit4-4  4  4  unitrc1  ra=2882.75  tb=0.17
xunit4-5  4  5  unitrc1  ra=9345.15  tb=0.12
xunit4-7  4  7  unitrc1  ra=2535.95  tb=0.39
xunit4-8  4  8  unitrc1  ra=4046.51  tb=0.45
xunit4-9  4  9  unitrc1  ra=448.97  tb=0.38
xunit4-14  4  14  unitrc1  ra=6124.20  tb=0.09
xunit4-15  4  15  unitrc1  ra=1178.61  tb=0.17
xunit4-16  4  16  unitrc1  ra=500.15  tb=0.19
xunit4-18  4  18  unitrc1  ra=6545.71  tb=0.21
xunit4-19  4  19  unitrc1  ra=6365.49  tb=0.32
xunit4-20  4  20  unitrc1  ra=807.78  tb=0.34
xunit4-21  4  21  unitrc1  ra=3505.45  tb=0.16
xunit4-24  4  24  unitrc1  ra=5493.13  tb=0.14
xunit4-25  4  25  unitrc1  ra=1964.26  tb=0.11
xunit4-26  4  26  unitrc1  ra=2781.86  tb=0.43
xunit4-27  4  27  unitrc1  ra=3840.66  tb=0.08
xunit4-28  4  28  unitrc1  ra=8989.84  tb=0.03
xunit4-29  4  29  unitrc1  ra=7456.39  tb=0.24
xunit4-33  4  33  unitrc1  ra=3569.37  tb=0.29
xunit4-34  4  34  unitrc1  ra=1335.94  tb=0.16
xunit4-35  4  35  unitrc1  ra=4072.00  tb=0.48
xunit4-36  4  36  unitrc1  ra=8787.59  tb=0.14
xunit4-37  4  37  unitrc1  ra=8709.14  tb=0.04
xunit4-38  4  38  unitrc1  ra=4219.53  tb=0.36
xunit4-39  4  39  unitrc1  ra=2793.97  tb=0.11
xunit4-41  4  41  unitrc1  ra=4422.97  tb=0.14
xunit4-42  4  42  unitrc1  ra=4279.63  tb=0.15
xunit4-47  4  47  unitrc1  ra=4034.72  tb=0.06
xunit4-49  4  49  unitrc1  ra=6556.42  tb=0.36
xunit4-50  4  50  unitrc1  ra=2454.08  tb=0.28

xunit5-1  5  1  unitrc1  ra=844.83  tb=0.04
xunit5-3  5  3  unitrc1  ra=4635.80  tb=0.12
xunit5-5  5  5  unitrc1  ra=9609.57  tb=0.40
xunit5-6  5  6  unitrc1  ra=9618.94  tb=0.15
xunit5-8  5  8  unitrc1  ra=2779.11  tb=0.43
xunit5-9  5  9  unitrc1  ra=3945.77  tb=0.11
xunit5-12  5  12  unitrc1  ra=9034.16  tb=0.19
xunit5-13  5  13  unitrc1  ra=5267.29  tb=0.18
xunit5-14  5  14  unitrc1  ra=2193.40  tb=0.43
xunit5-16  5  16  unitrc1  ra=7900.84  tb=0.10
xunit5-17  5  17  unitrc1  ra=9864.62  tb=0.22
xunit5-18  5  18  unitrc1  ra=6086.12  tb=0.11
xunit5-19  5  19  unitrc1  ra=5806.04  tb=0.15
xunit5-20  5  20  unitrc1  ra=7848.21  tb=0.08
xunit5-21  5  21  unitrc1  ra=4472.35  tb=0.14
xunit5-23  5  23  unitrc1  ra=4599.71  tb=0.11
xunit5-27  5  27  unitrc1  ra=5424.35  tb=0.37
xunit5-28  5  28  unitrc1  ra=6074.26  tb=0.46
xunit5-29  5  29  unitrc1  ra=348.66  tb=0.34
xunit5-31  5  31  unitrc1  ra=5413.29  tb=0.24
xunit5-32  5  32  unitrc1  ra=2206.72  tb=0.20
xunit5-33  5  33  unitrc1  ra=1018.06  tb=0.46
xunit5-37  5  37  unitrc1  ra=5777.31  tb=0.27
xunit5-39  5  39  unitrc1  ra=3959.67  tb=0.22
xunit5-43  5  43  unitrc1  ra=6399.41  tb=0.30
xunit5-44  5  44  unitrc1  ra=4830.54  tb=0.08
xunit5-45  5  45  unitrc1  ra=1956.41  tb=0.14
xunit5-47  5  47  unitrc1  ra=1838.89  tb=0.17
xunit5-49  5  49  unitrc1  ra=5852.01  tb=0.46
xunit5-50  5  50  unitrc1  ra=3836.31  tb=0.21

xunit6-1  6  1  unitrc1  ra=4361.17  tb=0.31
xunit6-2  6  2  unitrc1  ra=1225.17  tb=0.28
xunit6-3  6  3  unitrc1  ra=3477.85  tb=0.02
xunit6-4  6  4  unitrc1  ra=2042.93  tb=0.49
xunit6-5  6  5  unitrc1  ra=2775.92  tb=0.38
xunit6-7  6  7  unitrc1  ra=3185.70  tb=0.41
xunit6-8  6  8  unitrc1  ra=2602.30  tb=0.31
xunit6-10  6  10  unitrc1  ra=4142.22  tb=0.23
xunit6-11  6  11  unitrc1  ra=7896.59  tb=0.06
xunit6-12  6  12  unitrc1  ra=3262.57  tb=0.40
xunit6-13  6  13  unitrc1  ra=7777.33  tb=0.11
xunit6-14  6  14  unitrc1  ra=613.28  tb=0.02
xunit6-15  6  15  unitrc1  ra=2471.67  tb=0.25
xunit6-16  6  16  unitrc1  ra=1757.82  tb=0.32
xunit6-17  6  17  unitrc1  ra=7259.77  tb=0.29
xunit6-18  6  18  unitrc1  ra=8219.14  tb=0.05
xunit6-21  6  21  unitrc1  ra=416.97  tb=0.16
xunit6-22  6  22  unitrc1  ra=1886.39  tb=0.16
xunit6-26  6  26  unitrc1  ra=9177.22  tb=0.24
xunit6-28  6  28  unitrc1  ra=1464.43  tb=0.14
xunit6-29  6  29  unitrc1  ra=4980.52  tb=0.36
xunit6-31  6  31  unitrc1  ra=3502.89  tb=0.22
xunit6-33  6  33  unitrc1  ra=501.80  tb=0.04
xunit6-34  6  34  unitrc1  ra=5757.22  tb=0.30
xunit6-37  6  37  unitrc1  ra=4850.07  tb=0.40
xunit6-38  6  38  unitrc1  ra=3360.98  tb=0.14
xunit6-39  6  39  unitrc1  ra=193.57  tb=0.37
xunit6-42  6  42  unitrc1  ra=8964.89  tb=0.21
xunit6-45  6  45  unitrc1  ra=1657.83  tb=0.38
xunit6-46  6  46  unitrc1  ra=4707.85  tb=0.16
xunit6-47  6  47  unitrc1  ra=9733.85  tb=0.35
xunit6-48  6  48  unitrc1  ra=2852.43  tb=0.23
xunit6-49  6  49  unitrc1  ra=6308.80  tb=0.44

xunit7-4  7  4  unitrc1  ra=4732.17  tb=0.04
xunit7-5  7  5  unitrc1  ra=556.25  tb=0.03
xunit7-6  7  6  unitrc1  ra=2458.92  tb=0.32
xunit7-8  7  8  unitrc1  ra=8348.91  tb=0.37
xunit7-9  7  9  unitrc1  ra=1717.15  tb=0.39
xunit7-10  7  10  unitrc1  ra=3614.99  tb=0.09
xunit7-13  7  13  unitrc1  ra=2705.59  tb=0.37
xunit7-14  7  14  unitrc1  ra=7122.73  tb=0.37
xunit7-15  7  15  unitrc1  ra=8162.74  tb=0.32
xunit7-16  7  16  unitrc1  ra=455.44  tb=0.48
xunit7-17  7  17  unitrc1  ra=8527.68  tb=0.45
xunit7-19  7  19  unitrc1  ra=4988.46  tb=0.34
xunit7-21  7  21  unitrc1  ra=4836.12  tb=0.42
xunit7-24  7  24  unitrc1  ra=3661.52  tb=0.39
xunit7-25  7  25  unitrc1  ra=8898.18  tb=0.30
xunit7-26  7  26  unitrc1  ra=2479.38  tb=0.34
xunit7-27  7  27  unitrc1  ra=2685.50  tb=0.10
xunit7-32  7  32  unitrc1  ra=8810.44  tb=0.29
xunit7-33  7  33  unitrc1  ra=2704.85  tb=0.32
xunit7-34  7  34  unitrc1  ra=3108.80  tb=0.27
xunit7-35  7  35  unitrc1  ra=6939.10  tb=0.22
xunit7-36  7  36  unitrc1  ra=152.60  tb=0.37
xunit7-40  7  40  unitrc1  ra=5282.79  tb=0.48
xunit7-42  7  42  unitrc1  ra=8482.62  tb=0.44
xunit7-44  7  44  unitrc1  ra=5063.30  tb=0.09
xunit7-45  7  45  unitrc1  ra=4125.29  tb=0.42
xunit7-46  7  46  unitrc1  ra=6401.14  tb=0.24
xunit7-47  7  47  unitrc1  ra=8149.57  tb=0.03
xunit7-48  7  48  unitrc1  ra=4062.62  tb=0.17
xunit7-50  7  50  unitrc1  ra=4826.78  tb=0.05

xunit8-3  8  3  unitrc1  ra=6761.18  tb=0.49
xunit8-5  8  5  unitrc1  ra=8788.63  tb=0.04
xunit8-6  8  6  unitrc1  ra=3041.27  tb=0.27
xunit8-8  8  8  unitrc1  ra=352.73  tb=0.47
xunit8-9  8  9  unitrc1  ra=150.16  tb=0.10
xunit8-10  8  10  unitrc1  ra=1730.90  tb=0.30
xunit8-11  8  11  unitrc1  ra=7943.92  tb=0.38
xunit8-13  8  13  unitrc1  ra=742.88  tb=0.46
xunit8-15  8  15  unitrc1  ra=1749.41  tb=0.17
xunit8-16  8  16  unitrc1  ra=8856.15  tb=0.29
xunit8-17  8  17  unitrc1  ra=699.86  tb=0.14
xunit8-18  8  18  unitrc1  ra=7579.63  tb=0.29
xunit8-20  8  20  unitrc1  ra=4398.01  tb=0.40
xunit8-22  8  22  unitrc1  ra=6217.31  tb=0.42
xunit8-24  8  24  unitrc1  ra=6948.47  tb=0.19
xunit8-25  8  25  unitrc1  ra=2133.60  tb=0.10
xunit8-29  8  29  unitrc1  ra=2580.30  tb=0.17
xunit8-30  8  30  unitrc1  ra=2942.71  tb=0.39
xunit8-31  8  31  unitrc1  ra=762.02  tb=0.23
xunit8-32  8  32  unitrc1  ra=6235.92  tb=0.46
xunit8-37  8  37  unitrc1  ra=5515.28  tb=0.08
xunit8-40  8  40  unitrc1  ra=4227.40  tb=0.03
xunit8-42  8  42  unitrc1  ra=195.00  tb=0.40
xunit8-43  8  43  unitrc1  ra=2363.07  tb=0.20
xunit8-45  8  45  unitrc1  ra=4694.27  tb=0.10
xunit8-48  8  48  unitrc1  ra=4467.83  tb=0.24
xunit8-49  8  49  unitrc1  ra=9642.88  tb=0.07

xunit9-1  9  1  unitrc1  ra=6775.66  tb=0.48
xunit9-2  9  2  unitrc1  ra=9208.10  tb=0.37
xunit9-4  9  4  unitrc1  ra=8092.85  tb=0.49
xunit9-5  9  5  unitrc1  ra=9093.97  tb=0.19
xunit9-6  9  6  unitrc1  ra=2561.61  tb=0.34
xunit9-8  9  8  unitrc1  ra=3847.96  tb=0.36
xunit9-9  9  9  unitrc1  ra=8169.50  tb=0.14
xunit9-10  9  10  unitrc1  ra=8019.50  tb=0.13
xunit9-11  9  11  unitrc1  ra=3704.93  tb=0.36
xunit9-12  9  12  unitrc1  ra=6109.11  tb=0.16
xunit9-13  9  13  unitrc1  ra=3777.40  tb=0.13
xunit9-16  9  16  unitrc1  ra=2387.29  tb=0.44
xunit9-17  9  17  unitrc1  ra=8675.62  tb=0.08
xunit9-18  9  18  unitrc1  ra=517.68  tb=0.13
xunit9-19  9  19  unitrc1  ra=3993.91  tb=0.31
xunit9-21  9  21  unitrc1  ra=3732.66  tb=0.07
xunit9-22  9  22  unitrc1  ra=5574.63  tb=0.47
xunit9-23  9  23  unitrc1  ra=7535.76  tb=0.08
xunit9-24  9  24  unitrc1  ra=8560.33  tb=0.37
xunit9-25  9  25  unitrc1  ra=5231.55  tb=0.45
xunit9-27  9  27  unitrc1  ra=1699.86  tb=0.13
xunit9-34  9  34  unitrc1  ra=6844.57  tb=0.15
xunit9-35  9  35  unitrc1  ra=6223.32  tb=0.49
xunit9-36  9  36  unitrc1  ra=7844.01  tb=0.20
xunit9-37  9  37  unitrc1  ra=3261.64  tb=0.38
xunit9-38  9  38  unitrc1  ra=4428.81  tb=0.47
xunit9-39  9  39  unitrc1  ra=4046.11  tb=0.35
xunit9-40  9  40  unitrc1  ra=4381.20  tb=0.15
xunit9-41  9  41  unitrc1  ra=591.82  tb=0.20
xunit9-45  9  45  unitrc1  ra=1715.72  tb=0.08
xunit9-46  9  46  unitrc1  ra=3845.81  tb=0.38
xunit9-47  9  47  unitrc1  ra=3452.34  tb=0.03
xunit9-49  9  49  unitrc1  ra=6559.87  tb=0.47

xunit10-1  10  1  unitrc1  ra=272.67  tb=0.28
xunit10-4  10  4  unitrc1  ra=8253.12  tb=0.44
xunit10-7  10  7  unitrc1  ra=6850.57  tb=0.14
xunit10-8  10  8  unitrc1  ra=4225.32  tb=0.29
xunit10-9  10  9  unitrc1  ra=5013.43  tb=0.32
xunit10-10  10  10  unitrc1  ra=6114.43  tb=0.19
xunit10-11  10  11  unitrc1  ra=9775.08  tb=0.08
xunit10-12  10  12  unitrc1  ra=1992.99  tb=0.27
xunit10-14  10  14  unitrc1  ra=5284.04  tb=0.19
xunit10-15  10  15  unitrc1  ra=2052.74  tb=0.25
xunit10-16  10  16  unitrc1  ra=7119.17  tb=0.38
xunit10-18  10  18  unitrc1  ra=8182.41  tb=0.34
xunit10-19  10  19  unitrc1  ra=9254.65  tb=0.23
xunit10-21  10  21  unitrc1  ra=3800.34  tb=0.02
xunit10-23  10  23  unitrc1  ra=4238.63  tb=0.28
xunit10-26  10  26  unitrc1  ra=5430.87  tb=0.05
xunit10-28  10  28  unitrc1  ra=161.56  tb=0.27
xunit10-29  10  29  unitrc1  ra=3709.14  tb=0.13
xunit10-30  10  30  unitrc1  ra=8758.01  tb=0.12
xunit10-32  10  32  unitrc1  ra=4674.47  tb=0.19
xunit10-33  10  33  unitrc1  ra=8021.42  tb=0.25
xunit10-34  10  34  unitrc1  ra=371.23  tb=0.20
xunit10-35  10  35  unitrc1  ra=8051.67  tb=0.07
xunit10-36  10  36  unitrc1  ra=4042.86  tb=0.19
xunit10-37  10  37  unitrc1  ra=2678.47  tb=0.45
xunit10-38  10  38  unitrc1  ra=414.27  tb=0.26
xunit10-39  10  39  unitrc1  ra=3970.41  tb=0.26
xunit10-41  10  41  unitrc1  ra=3383.06  tb=0.06
xunit10-42  10  42  unitrc1  ra=4052.73  tb=0.41
xunit10-43  10  43  unitrc1  ra=1438.85  tb=0.15
xunit10-45  10  45  unitrc1  ra=7799.25  tb=0.36
xunit10-46  10  46  unitrc1  ra=2744.63  tb=0.41
xunit10-47  10  47  unitrc1  ra=3471.04  tb=0.14
xunit10-49  10  49  unitrc1  ra=7024.23  tb=0.38
xunit10-50  10  50  unitrc1  ra=8818.13  tb=0.33

xunit11-1  11  1  unitrc1  ra=3293.28  tb=0.30
xunit11-3  11  3  unitrc1  ra=2187.12  tb=0.46
xunit11-5  11  5  unitrc1  ra=832.83  tb=0.43
xunit11-6  11  6  unitrc1  ra=6816.90  tb=0.05
xunit11-7  11  7  unitrc1  ra=1922.19  tb=0.22
xunit11-8  11  8  unitrc1  ra=1388.29  tb=0.06
xunit11-9  11  9  unitrc1  ra=1254.88  tb=0.26
xunit11-10  11  10  unitrc1  ra=2949.15  tb=0.25
xunit11-12  11  12  unitrc1  ra=5835.92  tb=0.08
xunit11-13  11  13  unitrc1  ra=2517.63  tb=0.12
xunit11-15  11  15  unitrc1  ra=2834.63  tb=0.32
xunit11-16  11  16  unitrc1  ra=8002.21  tb=0.42
xunit11-18  11  18  unitrc1  ra=5413.96  tb=0.47
xunit11-19  11  19  unitrc1  ra=7667.56  tb=0.36
xunit11-20  11  20  unitrc1  ra=3829.79  tb=0.12
xunit11-21  11  21  unitrc1  ra=908.00  tb=0.24
xunit11-22  11  22  unitrc1  ra=585.33  tb=0.49
xunit11-23  11  23  unitrc1  ra=3015.04  tb=0.50
xunit11-24  11  24  unitrc1  ra=5075.75  tb=0.07
xunit11-25  11  25  unitrc1  ra=1693.40  tb=0.12
xunit11-27  11  27  unitrc1  ra=494.38  tb=0.05
xunit11-32  11  32  unitrc1  ra=4900.37  tb=0.40
xunit11-34  11  34  unitrc1  ra=5093.39  tb=0.24
xunit11-35  11  35  unitrc1  ra=6996.56  tb=0.43
xunit11-36  11  36  unitrc1  ra=676.48  tb=0.17
xunit11-37  11  37  unitrc1  ra=5056.59  tb=0.34
xunit11-38  11  38  unitrc1  ra=5288.82  tb=0.05
xunit11-39  11  39  unitrc1  ra=5937.73  tb=0.47
xunit11-40  11  40  unitrc1  ra=5804.79  tb=0.36
xunit11-43  11  43  unitrc1  ra=5057.50  tb=0.16
xunit11-45  11  45  unitrc1  ra=6169.39  tb=0.19
xunit11-47  11  47  unitrc1  ra=4380.31  tb=0.43
xunit11-48  11  48  unitrc1  ra=5714.28  tb=0.00
xunit11-49  11  49  unitrc1  ra=3407.36  tb=0.43

xunit12-1  12  1  unitrc1  ra=5870.86  tb=0.49
xunit12-2  12  2  unitrc1  ra=4987.98  tb=0.24
xunit12-4  12  4  unitrc1  ra=7198.54  tb=0.03
xunit12-5  12  5  unitrc1  ra=2498.70  tb=0.17
xunit12-7  12  7  unitrc1  ra=1978.65  tb=0.35
xunit12-9  12  9  unitrc1  ra=317.61  tb=0.26
xunit12-11  12  11  unitrc1  ra=5050.67  tb=0.07
xunit12-13  12  13  unitrc1  ra=8210.63  tb=0.17
xunit12-14  12  14  unitrc1  ra=3108.99  tb=0.13
xunit12-15  12  15  unitrc1  ra=3223.96  tb=0.19
xunit12-16  12  16  unitrc1  ra=2937.10  tb=0.37
xunit12-17  12  17  unitrc1  ra=5410.95  tb=0.28
xunit12-18  12  18  unitrc1  ra=4177.14  tb=0.03
xunit12-20  12  20  unitrc1  ra=1824.95  tb=0.23
xunit12-24  12  24  unitrc1  ra=2984.99  tb=0.42
xunit12-26  12  26  unitrc1  ra=2150.75  tb=0.36
xunit12-28  12  28  unitrc1  ra=5674.76  tb=0.31
xunit12-29  12  29  unitrc1  ra=3578.33  tb=0.24
xunit12-32  12  32  unitrc1  ra=4814.01  tb=0.21
xunit12-33  12  33  unitrc1  ra=7691.86  tb=0.47
xunit12-34  12  34  unitrc1  ra=5945.02  tb=0.25
xunit12-35  12  35  unitrc1  ra=6095.82  tb=0.20
xunit12-37  12  37  unitrc1  ra=1934.79  tb=0.26
xunit12-38  12  38  unitrc1  ra=5384.94  tb=0.38
xunit12-42  12  42  unitrc1  ra=2720.03  tb=0.43
xunit12-44  12  44  unitrc1  ra=3333.32  tb=0.03
xunit12-45  12  45  unitrc1  ra=3443.65  tb=0.34
xunit12-46  12  46  unitrc1  ra=4459.56  tb=0.05
xunit12-47  12  47  unitrc1  ra=7799.03  tb=0.34
xunit12-49  12  49  unitrc1  ra=1682.37  tb=0.22

xunit13-1  13  1  unitrc1  ra=2216.29  tb=0.47
xunit13-6  13  6  unitrc1  ra=6918.68  tb=0.33
xunit13-7  13  7  unitrc1  ra=659.23  tb=0.37
xunit13-10  13  10  unitrc1  ra=2999.72  tb=0.30
xunit13-11  13  11  unitrc1  ra=3855.62  tb=0.17
xunit13-12  13  12  unitrc1  ra=6550.72  tb=0.08
xunit13-13  13  13  unitrc1  ra=3967.19  tb=0.29
xunit13-14  13  14  unitrc1  ra=7254.96  tb=0.17
xunit13-15  13  15  unitrc1  ra=9986.07  tb=0.20
xunit13-18  13  18  unitrc1  ra=4059.40  tb=0.34
xunit13-20  13  20  unitrc1  ra=3298.37  tb=0.19
xunit13-21  13  21  unitrc1  ra=7337.74  tb=0.36
xunit13-22  13  22  unitrc1  ra=7156.46  tb=0.12
xunit13-23  13  23  unitrc1  ra=3683.49  tb=0.34
xunit13-24  13  24  unitrc1  ra=1791.92  tb=0.39
xunit13-30  13  30  unitrc1  ra=9849.05  tb=0.02
xunit13-31  13  31  unitrc1  ra=7137.47  tb=0.04
xunit13-33  13  33  unitrc1  ra=8992.00  tb=0.23
xunit13-36  13  36  unitrc1  ra=5049.06  tb=0.08
xunit13-37  13  37  unitrc1  ra=2885.77  tb=0.11
xunit13-42  13  42  unitrc1  ra=7734.89  tb=0.05
xunit13-43  13  43  unitrc1  ra=6284.96  tb=0.36
xunit13-44  13  44  unitrc1  ra=4195.98  tb=0.14
xunit13-47  13  47  unitrc1  ra=4007.79  tb=0.00
xunit13-48  13  48  unitrc1  ra=8374.20  tb=0.42
xunit13-50  13  50  unitrc1  ra=7781.64  tb=0.26

xunit14-1  14  1  unitrc1  ra=1417.08  tb=0.15
xunit14-2  14  2  unitrc1  ra=7643.50  tb=0.26
xunit14-3  14  3  unitrc1  ra=1710.49  tb=0.10
xunit14-4  14  4  unitrc1  ra=2255.72  tb=0.30
xunit14-7  14  7  unitrc1  ra=7668.65  tb=0.38
xunit14-8  14  8  unitrc1  ra=2957.15  tb=0.12
xunit14-12  14  12  unitrc1  ra=5547.26  tb=0.42
xunit14-13  14  13  unitrc1  ra=1907.97  tb=0.42
xunit14-14  14  14  unitrc1  ra=4588.46  tb=0.10
xunit14-15  14  15  unitrc1  ra=3724.69  tb=0.32
xunit14-16  14  16  unitrc1  ra=1446.98  tb=0.25
xunit14-20  14  20  unitrc1  ra=3677.29  tb=0.21
xunit14-21  14  21  unitrc1  ra=958.17  tb=0.16
xunit14-22  14  22  unitrc1  ra=1259.33  tb=0.45
xunit14-23  14  23  unitrc1  ra=4595.57  tb=0.36
xunit14-25  14  25  unitrc1  ra=4590.89  tb=0.32
xunit14-26  14  26  unitrc1  ra=6818.24  tb=0.28
xunit14-30  14  30  unitrc1  ra=3248.64  tb=0.00
xunit14-31  14  31  unitrc1  ra=3420.47  tb=0.36
xunit14-32  14  32  unitrc1  ra=8673.91  tb=0.29
xunit14-35  14  35  unitrc1  ra=8158.54  tb=0.45
xunit14-36  14  36  unitrc1  ra=9063.34  tb=0.06
xunit14-38  14  38  unitrc1  ra=2877.79  tb=0.28
xunit14-39  14  39  unitrc1  ra=6219.96  tb=0.14
xunit14-40  14  40  unitrc1  ra=1997.60  tb=0.18
xunit14-42  14  42  unitrc1  ra=4807.93  tb=0.17
xunit14-43  14  43  unitrc1  ra=2220.79  tb=0.33
xunit14-44  14  44  unitrc1  ra=2573.35  tb=0.38
xunit14-45  14  45  unitrc1  ra=888.65  tb=0.48
xunit14-46  14  46  unitrc1  ra=6566.97  tb=0.09
xunit14-48  14  48  unitrc1  ra=5654.02  tb=0.02
xunit14-49  14  49  unitrc1  ra=5702.06  tb=0.29

xunit15-1  15  1  unitrc1  ra=8045.97  tb=0.35
xunit15-2  15  2  unitrc1  ra=4279.82  tb=0.46
xunit15-3  15  3  unitrc1  ra=5321.92  tb=0.19
xunit15-5  15  5  unitrc1  ra=1826.58  tb=0.25
xunit15-9  15  9  unitrc1  ra=4495.65  tb=0.19
xunit15-11  15  11  unitrc1  ra=1845.55  tb=0.33
xunit15-13  15  13  unitrc1  ra=5841.15  tb=0.37
xunit15-14  15  14  unitrc1  ra=8126.66  tb=0.41
xunit15-16  15  16  unitrc1  ra=882.07  tb=0.44
xunit15-17  15  17  unitrc1  ra=3288.40  tb=0.07
xunit15-20  15  20  unitrc1  ra=2754.05  tb=0.12
xunit15-23  15  23  unitrc1  ra=1878.78  tb=0.38
xunit15-24  15  24  unitrc1  ra=3377.27  tb=0.17
xunit15-27  15  27  unitrc1  ra=6012.34  tb=0.06
xunit15-33  15  33  unitrc1  ra=3940.91  tb=0.10
xunit15-34  15  34  unitrc1  ra=9910.35  tb=0.36
xunit15-36  15  36  unitrc1  ra=1337.73  tb=0.05
xunit15-39  15  39  unitrc1  ra=4331.64  tb=0.10
xunit15-40  15  40  unitrc1  ra=6272.22  tb=0.04
xunit15-41  15  41  unitrc1  ra=267.31  tb=0.37
xunit15-42  15  42  unitrc1  ra=4268.35  tb=0.27
xunit15-43  15  43  unitrc1  ra=5257.40  tb=0.21

xunit16-1  16  1  unitrc1  ra=5883.90  tb=0.22
xunit16-2  16  2  unitrc1  ra=2515.84  tb=0.48
xunit16-3  16  3  unitrc1  ra=1513.67  tb=0.15
xunit16-5  16  5  unitrc1  ra=6241.79  tb=0.20
xunit16-8  16  8  unitrc1  ra=1020.01  tb=0.36
xunit16-10  16  10  unitrc1  ra=4365.88  tb=0.01
xunit16-13  16  13  unitrc1  ra=6871.32  tb=0.31
xunit16-17  16  17  unitrc1  ra=6885.16  tb=0.43
xunit16-20  16  20  unitrc1  ra=886.23  tb=0.24
xunit16-21  16  21  unitrc1  ra=1476.25  tb=0.07
xunit16-22  16  22  unitrc1  ra=3532.07  tb=0.41
xunit16-25  16  25  unitrc1  ra=5109.35  tb=0.22
xunit16-28  16  28  unitrc1  ra=2815.97  tb=0.09
xunit16-29  16  29  unitrc1  ra=5895.97  tb=0.37
xunit16-30  16  30  unitrc1  ra=7321.60  tb=0.07
xunit16-31  16  31  unitrc1  ra=7084.00  tb=0.47
xunit16-32  16  32  unitrc1  ra=878.66  tb=0.36
xunit16-34  16  34  unitrc1  ra=1810.25  tb=0.34
xunit16-35  16  35  unitrc1  ra=6248.37  tb=0.14
xunit16-36  16  36  unitrc1  ra=8946.22  tb=0.05
xunit16-37  16  37  unitrc1  ra=6650.19  tb=0.21
xunit16-39  16  39  unitrc1  ra=5736.65  tb=0.36
xunit16-40  16  40  unitrc1  ra=6139.41  tb=0.15
xunit16-44  16  44  unitrc1  ra=3789.13  tb=0.32
xunit16-45  16  45  unitrc1  ra=5439.45  tb=0.22
xunit16-47  16  47  unitrc1  ra=893.32  tb=0.16
xunit16-48  16  48  unitrc1  ra=864.71  tb=0.16
xunit16-49  16  49  unitrc1  ra=4118.46  tb=0.30
xunit16-50  16  50  unitrc1  ra=6382.20  tb=0.36

xunit17-5  17  5  unitrc1  ra=2717.00  tb=0.12
xunit17-6  17  6  unitrc1  ra=3687.47  tb=0.41
xunit17-7  17  7  unitrc1  ra=5495.88  tb=0.10
xunit17-8  17  8  unitrc1  ra=1783.85  tb=0.19
xunit17-12  17  12  unitrc1  ra=2194.90  tb=0.06
xunit17-13  17  13  unitrc1  ra=2163.70  tb=0.43
xunit17-14  17  14  unitrc1  ra=6354.28  tb=0.41
xunit17-15  17  15  unitrc1  ra=1175.75  tb=0.20
xunit17-18  17  18  unitrc1  ra=259.80  tb=0.45
xunit17-22  17  22  unitrc1  ra=8705.16  tb=0.38
xunit17-23  17  23  unitrc1  ra=5508.29  tb=0.14
xunit17-28  17  28  unitrc1  ra=3132.68  tb=0.28
xunit17-33  17  33  unitrc1  ra=1606.86  tb=0.39
xunit17-34  17  34  unitrc1  ra=9402.96  tb=0.48
xunit17-35  17  35  unitrc1  ra=8851.88  tb=0.20
xunit17-39  17  39  unitrc1  ra=4942.91  tb=0.36
xunit17-40  17  40  unitrc1  ra=1766.95  tb=0.27
xunit17-42  17  42  unitrc1  ra=5344.00  tb=0.06
xunit17-43  17  43  unitrc1  ra=8158.36  tb=0.34
xunit17-44  17  44  unitrc1  ra=701.62  tb=0.44
xunit17-45  17  45  unitrc1  ra=3108.74  tb=0.33
xunit17-46  17  46  unitrc1  ra=668.18  tb=0.17
xunit17-50  17  50  unitrc1  ra=1015.09  tb=0.32

xunit18-1  18  1  unitrc1  ra=2658.14  tb=0.28
xunit18-2  18  2  unitrc1  ra=7422.93  tb=0.29
xunit18-3  18  3  unitrc1  ra=8266.98  tb=0.42
xunit18-4  18  4  unitrc1  ra=808.97  tb=0.47
xunit18-5  18  5  unitrc1  ra=1624.76  tb=0.39
xunit18-6  18  6  unitrc1  ra=2285.18  tb=0.11
xunit18-7  18  7  unitrc1  ra=5657.36  tb=0.36
xunit18-9  18  9  unitrc1  ra=557.08  tb=0.12
xunit18-12  18  12  unitrc1  ra=1943.70  tb=0.20
xunit18-13  18  13  unitrc1  ra=5661.83  tb=0.16
xunit18-15  18  15  unitrc1  ra=1907.20  tb=0.15
xunit18-17  18  17  unitrc1  ra=6940.16  tb=0.36